electric-grid/synthetic/uiuc150/uiuc-150bus.aux
DATA (AREA, [AreaNum, AreaName, BGAGC])
{
    1 "TN" "Part. AGC"
}

DATA (SUBSTATION, [SubNum, SubName, Longitude, Latitude, AreaName, AreaNum])
{
    1 "GOODLETTSVILLE_37072" -86.840794727 36.4361804304 "TN" 1
    2 "LEBANON_37087" -86.1934943017 36.2232990848 "TN" 1
    3 "ANTIOCH_37013" -86.632503 36.052237 "TN" 1
    4 "BRENTWOOD_37027" -86.7678957853 35.9625068501 "TN" 1
    5 "NASHVILLE_37209" -86.9812860055 36.2313230842 "TN" 1
    6 "MCMINNVILLE_37110" -85.7475914022 35.7300886804 "TN" 1
    7 "MURFREESBORO_37130" -86.2825978601 35.8407887031 "TN" 1
    8 "SHELBYVILLE_37160" -86.6415513207 35.5018471496 "TN" 1
    9 "LAFAYETTE_37083" -86.137856807 36.5241813807 "TN" 1
    10 "CLARKSVILLE_37042" -87.5031479097 36.5247904198 "TN" 1
    11 "DICKSON_37055" -87.4458406938 35.9636682407 "TN" 1
    12 "NASHVILLE_37221" -87.024371376 36.0432600839 "TN" 1
    13 "CLARKSVILLE_37040" -87.2991497124 36.4750590909 "TN" 1
    14 "WHITE HOUSE_37188" -86.5207765343 36.4681970852 "TN" 1
    15 "FRANKLIN_37064" -86.9483107953 35.8704281932 "TN" 1
    16 "HENDERSONVILLE_37075" -86.6083222428 36.3138251592 "TN" 1
    17 "HERMITAGE_37076" -86.6131459318 36.1305811163 "TN" 1
    18 "SMYRNA_37167" -86.5424147847 35.98397912 "TN" 1
    19 "LEXINGTON_38351" -88.2598342668 35.6188447113 "TN" 1
    20 "NASHVILLE_37207" -86.7328960293 36.2386851446 "TN" 1
    21 "NASHVILLE_37215" -86.6723539361 36.1368251542 "TN" 1
    22 "MURFREESBORO_37129" -86.4686755144 35.8608118381 "TN" 1
    23 "CAMDEN_38320" -88.0416134774 36.0368164557 "TN" 1
    24 "GAINESBORO_38562" -85.6435452999 36.4681348883 "TN" 1
    25 "COLUMBIA_38401" -86.9813285865 35.6587771648 "TN" 1
    26 "TULLAHOMA_37388" -86.1340171658 35.3303718463 "TN" 1
    27 "NASHVILLE_37212" -86.7949119187 36.1454615304 "TN" 1
    28 "NASHVILLE_37206" -86.7068456117 36.1654767757 "TN" 1
    29 "NASHVILLE_37211" -86.723711 36.067234 "TN" 1
    30 "CHATTANOOGA_37405" -85.5225459426 35.1731961923 "TN" 1
    31 "CHATTANOOGA_37421" -85.1078798344 35.0632635071 "TN" 1
    32 "ATHENS_37303" -84.4815512563 35.4671515079 "TN" 1
    33 "CLEVELAND_37311" -84.8302550606 35.1167406723 "TN" 1
    34 "SODDY DAISY_37379" -85.0316300656 35.2728380418 "TN" 1
    35 "COPPERHILL_37317" -84.3976910854 35.0648309118 "TN" 1
    36 "DAYTON_37321" -84.9131826264 35.5697119979 "TN" 1
    37 "DUNLAP_37327" -85.3293584016 35.5198662332 "TN" 1
    38 "FAYETTEVILLE_37334" -86.5825760861 35.1325352331 "TN" 1
    39 "HIXSON_37343" -85.2298007146 35.1309065502 "TN" 1
    40 "CHATTANOOGA_37404" -85.2632485895 35.0170122044 "TN" 1
    41 "JOHNSON CITY_37601" -82.3466130749 36.3072681288 "TN" 1
    42 "JONESBOROUGH_37659" -82.4564160735 36.3263903427 "TN" 1
    43 "GREENEVILLE_37745" -82.8073928435 36.1684718086 "TN" 1
    44 "ELIZABETHTON_37643" -82.120032682 36.4385916589 "TN" 1
    45 "CHURCH HILL_37642" -82.8358469904 36.4861057597 "TN" 1
    46 "KINGSPORT_37660" -82.5390898047 36.5123863656 "TN" 1
    47 "MOUNTAIN CITY_37683" -81.817547765 36.4619711011 "TN" 1
    48 "MARYVILLE_37804" -83.8536113899 35.8497114484 "TN" 1
    49 "CLINTON_37716" -84.1056747832 36.1290442197 "TN" 1
    50 "MORRISTOWN_37814" -83.2463520059 36.254157144 "TN" 1
    51 "KNOXVILLE_37914" -83.7164213141 36.0263982403 "TN" 1
    52 "LOUDON_37774" -84.3041777035 35.8786134504 "TN" 1
    53 "JEFFERSON CITY_37760" -83.3257022963 36.0450313058 "TN" 1
    54 "LA FOLLETTE_37766" -84.3043359941 36.4209694726 "TN" 1
    55 "KNOXVILLE_37918" -83.8868689464 36.1141335089 "TN" 1
    56 "CROSSVILLE_38555" -85.0380809025 35.991671075 "TN" 1
    57 "TAZEWELL_37879" -83.6199000857 36.4785271488 "TN" 1
    58 "HARRIMAN_37748" -84.582597409 35.9377632134 "TN" 1
    59 "SEVIERVILLE_37876" -83.5335217781 35.810683885 "TN" 1
    60 "MARYVILLE_37803" -84.0344606157 35.6605660744 "TN" 1
    61 "KNOXVILLE_37922" -84.1335015059 35.8647861937 "TN" 1
    62 "KNOXVILLE_37921" -83.9585805915 35.9870544804 "TN" 1
    63 "KNOXVILLE_37919" -84.0597180945 35.939789485 "TN" 1
    64 "HUMBOLDT_38343" -88.9888917497 35.9444317446 "TN" 1
    65 "ARLINGTON_38002" -89.6812590816 35.2984039765 "TN" 1
    66 "BRIGHTON_38011" -89.7213441895 35.5610550741 "TN" 1
    67 "UNION CITY_38261" -89.2419374891 36.385831355 "TN" 1
    68 "WHITEVILLE_38075" -89.0125645514 35.2638609043 "TN" 1
    69 "BROWNSVILLE_38012" -89.2810608436 35.5920875633 "TN" 1
    70 "CORDOVA_38016" -89.7672334243 35.1728656581 "TN" 1
    71 "COLLIERVILLE_38017" -89.5721653781 35.1186918963 "TN" 1
    72 "DYERSBURG_38024" -89.3669957098 36.0241806723 "TN" 1
    73 "MEMPHIS_38134" -89.8546642539 35.1891763378 "TN" 1
    74 "MEMPHIS_38127" -89.9931273378 35.2797489851 "TN" 1
    75 "MEMPHIS_38103" -90.0153628152 35.1474367811 "TN" 1
    76 "MEMPHIS_38109" -90.1363775041 35.0636525469 "TN" 1
    77 "MEMPHIS_38128" -89.9338214746 35.1958101077 "TN" 1
    78 "MEMPHIS_38111" -89.9448899361 35.1079542712 "TN" 1
    79 "MEMPHIS_38115" -89.8570490773 35.0504993729 "TN" 1
    80 "MEMPHIS_38118" -89.971452972 35.0329024361 "TN" 1
    81 "GERMANTOWN_38138" -89.7849338054 35.0558167646 "TN" 1
    82 "HUNTINGDON_38344" -88.569308124 35.9750215955 "TN" 1
    83 "PARIS_38242" -88.276575755 36.3193893371 "TN" 1
    84 "MARTIN_38237" -88.7719744011 36.3568753802 "TN" 1
    85 "JACKSON_38305" -88.8021167132 35.6627082371 "TN" 1
    86 "ADAMSVILLE_38310" -88.5628126581 35.2525530677 "TN" 1
    87 "SAVANNAH_38372" -88.0033541713 35.2314787642 "TN" 1
    88 "LAWRENCEBURG_38464" -87.3072329051 35.2973723726 "TN" 1
    89 "COOKEVILLE_38501" -85.5006963849 36.1385495023 "TN" 1
    90 "LIVINGSTON_38570" -85.1306273371 36.4266285988 "TN" 1
    91 "Gallatin (TN)" -86.40037003 36.3155502 "TN" 1
    92 "John Sevier" -82.96343716 36.37678246 "TN" 1
    93 "Johnsonville" -87.98583341 36.02816018 "TN" 1
    94 "Kingston" -84.46181239 35.90860564 "TN" 1
    95 "Lagoon Creek" -89.40083354 35.6518597 "TN" 1
    96 "Pickwick Landing Dam" -88.24970448 35.068214 "TN" 1
    97 "Sequoyah" -85.09150732 35.22668393 "TN" 1
    98 "Tims Ford" -86.2783 35.1967 "TN" 1
}

DATA (BUS, [BusNum, BusName, BusNomVolt, AreaName,ZoneNum, SubNum, AreaNum, Slack])
{
    1 "Johnsonville_g4" 13.8 "TN" 1 93 1 "YES"
    2 "GOODLETTSVILLE_37072_230.0" 230.0 "TN" 1 1 1 "NO"
    3 "LEBANON_37087_230.0" 230.0 "TN" 1 2 1 "NO"
    4 "ANTIOCH_37013_230.0" 230.0 "TN" 1 3 1 "NO"
    5 "BRENTWOOD_37027_230.0" 230.0 "TN" 1 4 1 "NO"
    6 "NASHVILLE_37209_230.0" 230.0 "TN" 1 5 1 "NO"
    7 "MCMINNVILLE_37110_230.0" 230.0 "TN" 1 6 1 "NO"
    8 "MURFREESBORO_37130_230.0" 230.0 "TN" 1 7 1 "NO"
    9 "SHELBYVILLE_37160_230.0" 230.0 "TN" 1 8 1 "NO"
    10 "LAFAYETTE_37083_230.0" 230.0 "TN" 1 9 1 "NO"
    11 "CLARKSVILLE_37042_230.0" 230.0 "TN" 1 10 1 "NO"
    12 "DICKSON_37055_230.0" 230.0 "TN" 1 11 1 "NO"
    13 "NASHVILLE_37221_230.0" 230.0 "TN" 1 12 1 "NO"
    14 "CLARKSVILLE_37040_230.0" 230.0 "TN" 1 13 1 "NO"
    15 "WHITE HOUSE_37188_230.0" 230.0 "TN" 1 14 1 "NO"
    16 "FRANKLIN_37064_230.0" 230.0 "TN" 1 15 1 "NO"
    17 "HENDERSONVILLE_37075_230.0" 230.0 "TN" 1 16 1 "NO"
    18 "HERMITAGE_37076_230.0" 230.0 "TN" 1 17 1 "NO"
    19 "SMYRNA_37167_230.0" 230.0 "TN" 1 18 1 "NO"
    20 "LEXINGTON_38351_230.0" 230.0 "TN" 1 19 1 "NO"
    21 "NASHVILLE_37207_230.0" 230.0 "TN" 1 20 1 "NO"
    22 "NASHVILLE_37215_230.0" 230.0 "TN" 1 21 1 "NO"
    23 "MURFREESBORO_37129_230.0" 230.0 "TN" 1 22 1 "NO"
    24 "CAMDEN_38320_230.0" 230.0 "TN" 1 23 1 "NO"
    25 "GAINESBORO_38562_230.0" 230.0 "TN" 1 24 1 "NO"
    26 "COLUMBIA_38401_230.0" 230.0 "TN" 1 25 1 "NO"
    27 "TULLAHOMA_37388_230.0" 230.0 "TN" 1 26 1 "NO"
    28 "NASHVILLE_37212_230.0" 230.0 "TN" 1 27 1 "NO"
    29 "NASHVILLE_37206_230.0" 230.0 "TN" 1 28 1 "NO"
    30 "NASHVILLE_37211_230.0" 230.0 "TN" 1 29 1 "NO"
    31 "CHATTANOOGA_37405_230.0" 230.0 "TN" 1 30 1 "NO"
    32 "CHATTANOOGA_37421_230.0" 230.0 "TN" 1 31 1 "NO"
    33 "ATHENS_37303_230.0" 230.0 "TN" 1 32 1 "NO"
    34 "CLEVELAND_37311_230.0" 230.0 "TN" 1 33 1 "NO"
    35 "SODDY DAISY_37379_230.0" 230.0 "TN" 1 34 1 "NO"
    36 "COPPERHILL_37317_230.0" 230.0 "TN" 1 35 1 "NO"
    37 "DAYTON_37321_230.0" 230.0 "TN" 1 36 1 "NO"
    38 "DUNLAP_37327_230.0" 230.0 "TN" 1 37 1 "NO"
    39 "FAYETTEVILLE_37334_230.0" 230.0 "TN" 1 38 1 "NO"
    40 "HIXSON_37343_230.0" 230.0 "TN" 1 39 1 "NO"
    41 "CHATTANOOGA_37404_230.0" 230.0 "TN" 1 40 1 "NO"
    42 "JOHNSON CITY_37601_230.0" 230.0 "TN" 1 41 1 "NO"
    43 "JONESBOROUGH_37659_230.0" 230.0 "TN" 1 42 1 "NO"
    44 "GREENEVILLE_37745_230.0" 230.0 "TN" 1 43 1 "NO"
    45 "ELIZABETHTON_37643_230.0" 230.0 "TN" 1 44 1 "NO"
    46 "CHURCH HILL_37642_230.0" 230.0 "TN" 1 45 1 "NO"
    47 "KINGSPORT_37660_230.0" 230.0 "TN" 1 46 1 "NO"
    48 "MOUNTAIN CITY_37683_230.0" 230.0 "TN" 1 47 1 "NO"
    49 "MARYVILLE_37804_230.0" 230.0 "TN" 1 48 1 "NO"
    50 "CLINTON_37716_230.0" 230.0 "TN" 1 49 1 "NO"
    51 "MORRISTOWN_37814_230.0" 230.0 "TN" 1 50 1 "NO"
    52 "KNOXVILLE_37914_230.0" 230.0 "TN" 1 51 1 "NO"
    53 "LOUDON_37774_230.0" 230.0 "TN" 1 52 1 "NO"
    54 "JEFFERSON CITY_37760_230.0" 230.0 "TN" 1 53 1 "NO"
    55 "LA FOLLETTE_37766_230.0" 230.0 "TN" 1 54 1 "NO"
    56 "KNOXVILLE_37918_230.0" 230.0 "TN" 1 55 1 "NO"
    57 "CROSSVILLE_38555_230.0" 230.0 "TN" 1 56 1 "NO"
    58 "TAZEWELL_37879_230.0" 230.0 "TN" 1 57 1 "NO"
    59 "HARRIMAN_37748_230.0" 230.0 "TN" 1 58 1 "NO"
    60 "SEVIERVILLE_37876_230.0" 230.0 "TN" 1 59 1 "NO"
    61 "MARYVILLE_37803_230.0" 230.0 "TN" 1 60 1 "NO"
    62 "KNOXVILLE_37922_230.0" 230.0 "TN" 1 61 1 "NO"
    63 "KNOXVILLE_37921_230.0" 230.0 "TN" 1 62 1 "NO"
    64 "KNOXVILLE_37919_230.0" 230.0 "TN" 1 63 1 "NO"
    65 "HUMBOLDT_38343_230.0" 230.0 "TN" 1 64 1 "NO"
    66 "ARLINGTON_38002_230.0" 230.0 "TN" 1 65 1 "NO"
    67 "BRIGHTON_38011_230.0" 230.0 "TN" 1 66 1 "NO"
    68 "UNION CITY_38261_230.0" 230.0 "TN" 1 67 1 "NO"
    69 "WHITEVILLE_38075_230.0" 230.0 "TN" 1 68 1 "NO"
    70 "BROWNSVILLE_38012_230.0" 230.0 "TN" 1 69 1 "NO"
    71 "CORDOVA_38016_230.0" 230.0 "TN" 1 70 1 "NO"
    72 "COLLIERVILLE_38017_230.0" 230.0 "TN" 1 71 1 "NO"
    73 "DYERSBURG_38024_230.0" 230.0 "TN" 1 72 1 "NO"
    74 "MEMPHIS_38134_230.0" 230.0 "TN" 1 73 1 "NO"
    75 "MEMPHIS_38127_230.0" 230.0 "TN" 1 74 1 "NO"
    76 "MEMPHIS_38103_230.0" 230.0 "TN" 1 75 1 "NO"
    77 "MEMPHIS_38109_230.0" 230.0 "TN" 1 76 1 "NO"
    78 "MEMPHIS_38128_230.0" 230.0 "TN" 1 77 1 "NO"
    79 "MEMPHIS_38111_230.0" 230.0 "TN" 1 78 1 "NO"
    80 "MEMPHIS_38115_230.0" 230.0 "TN" 1 79 1 "NO"
    81 "MEMPHIS_38118_230.0" 230.0 "TN" 1 80 1 "NO"
    82 "GERMANTOWN_38138_230.0" 230.0 "TN" 1 81 1 "NO"
    83 "HUNTINGDON_38344_230.0" 230.0 "TN" 1 82 1 "NO"
    84 "PARIS_38242_230.0" 230.0 "TN" 1 83 1 "NO"
    85 "MARTIN_38237_230.0" 230.0 "TN" 1 84 1 "NO"
    86 "JACKSON_38305_230.0" 230.0 "TN" 1 85 1 "NO"
    87 "ADAMSVILLE_38310_230.0" 230.0 "TN" 1 86 1 "NO"
    88 "SAVANNAH_38372_230.0" 230.0 "TN" 1 87 1 "NO"
    89 "LAWRENCEBURG_38464_230.0" 230.0 "TN" 1 88 1 "NO"
    90 "COOKEVILLE_38501_230.0" 230.0 "TN" 1 89 1 "NO"
    91 "LIVINGSTON_38570_230.0" 230.0 "TN" 1 90 1 "NO"
    92 "KNOXVILLE_37921_500.0" 500.0 "TN" 1 62 1 "NO"
    93 "JEFFERSON CITY_37760_500.0" 500.0 "TN" 1 53 1 "NO"
    94 "HIXSON_37343_500.0" 500.0 "TN" 1 39 1 "NO"
    95 "JACKSON_38305_500.0" 500.0 "TN" 1 85 1 "NO"
    96 "MURFREESBORO_37129_500.0" 500.0 "TN" 1 22 1 "NO"
    97 "JONESBOROUGH_37659_500.0" 500.0 "TN" 1 42 1 "NO"
    98 "CLARKSVILLE_37042_500.0" 500.0 "TN" 1 10 1 "NO"
    99 "MEMPHIS_38111_500.0" 500.0 "TN" 1 78 1 "NO"
    100 "KNOXVILLE_37919_500.0" 500.0 "TN" 1 63 1 "NO"
    101 "NASHVILLE_37215_500.0" 500.0 "TN" 1 21 1 "NO"
    102 "MURFREESBORO_37130_500.0" 500.0 "TN" 1 7 1 "NO"
    103 "ELIZABETHTON_37643_500.0" 500.0 "TN" 1 44 1 "NO"
    104 "CORDOVA_38016_500.0" 500.0 "TN" 1 70 1 "NO"
    105 "COOKEVILLE_38501_500.0" 500.0 "TN" 1 89 1 "NO"
    106 "TULLAHOMA_37388_500.0" 500.0 "TN" 1 26 1 "NO"
    107 "ATHENS_37303_500.0" 500.0 "TN" 1 32 1 "NO"
    108 "CLARKSVILLE_37040_500.0" 500.0 "TN" 1 13 1 "NO"
    109 "MARYVILLE_37804_500.0" 500.0 "TN" 1 48 1 "NO"
    110 "Gallatin (TN)_g1" 13.8 "TN" 1 91 1 "NO"
    111 "Gallatin (TN)_g2" 13.8 "TN" 1 91 1 "NO"
    112 "Gallatin (TN)_g3" 13.8 "TN" 1 91 1 "NO"
    113 "John Sevier_g1" 13.8 "TN" 1 92 1 "NO"
    114 "John Sevier_g2" 13.8 "TN" 1 92 1 "NO"
    115 "John Sevier_g3" 13.8 "TN" 1 92 1 "NO"
    116 "Johnsonville_g1" 13.8 "TN" 1 93 1 "NO"
    117 "Johnsonville_g2" 13.8 "TN" 1 93 1 "NO"
    118 "Johnsonville_g3" 13.8 "TN" 1 93 1 "NO"
    119 "Johnsonville_g5" 13.8 "TN" 1 93 1 "NO"
    120 "Kingston_g1" 13.8 "TN" 1 94 1 "NO"
    121 "Kingston_g2" 13.8 "TN" 1 94 1 "NO"
    122 "Kingston_g3" 13.8 "TN" 1 94 1 "NO"
    123 "Kingston_g4" 13.8 "TN" 1 94 1 "NO"
    124 "Lagoon Creek_g1" 13.8 "TN" 1 95 1 "NO"
    125 "Lagoon Creek_g2" 13.8 "TN" 1 95 1 "NO"
    126 "Lagoon Creek_g3" 13.8 "TN" 1 95 1 "NO"
    127 "Lagoon Creek_g4" 13.8 "TN" 1 95 1 "NO"
    128 "Lagoon Creek_g5" 13.8 "TN" 1 95 1 "NO"
    129 "Pickwick Landing Dam_g1" 13.8 "TN" 1 96 1 "NO"
    130 "Sequoyah_g1" 13.8 "TN" 1 97 1 "NO"
    131 "Sequoyah_g2" 13.8 "TN" 1 97 1 "NO"
    132 "Sequoyah_g3" 13.8 "TN" 1 97 1 "NO"
    133 "Sequoyah_g4" 13.8 "TN" 1 97 1 "NO"
    134 "Sequoyah_g5" 13.8 "TN" 1 97 1 "NO"
    135 "Tims Ford_g1" 13.8 "TN" 1 98 1 "NO"
    136 "Lagoon Creek_230.0" 230.0 "TN" 1 95 1 "NO"
    137 "Lagoon Creek_500.0" 500.0 "TN" 1 95 1 "NO"
    138 "Kingston_230.0" 230.0 "TN" 1 94 1 "NO"
    139 "Kingston_500.0" 500.0 "TN" 1 94 1 "NO"
    140 "Tims Ford_230.0" 230.0 "TN" 1 98 1 "NO"
    141 "Gallatin (TN)_230.0" 230.0 "TN" 1 91 1 "NO"
    142 "Gallatin (TN)_500.0" 500.0 "TN" 1 91 1 "NO"
    143 "Johnsonville_230.0" 230.0 "TN" 1 93 1 "NO"
    144 "Johnsonville_500.0" 500.0 "TN" 1 93 1 "NO"
    145 "Sequoyah_230.0" 230.0 "TN" 1 97 1 "NO"
    146 "Sequoyah_500.0" 500.0 "TN" 1 97 1 "NO"
    147 "Pickwick Landing Dam_230.0" 230.0 "TN" 1 96 1 "NO"
    148 "Pickwick Landing Dam_500.0" 500.0 "TN" 1 96 1 "NO"
    149 "John Sevier_230.0" 230.0 "TN" 1 92 1 "NO"
    150 "John Sevier_500.0" 500.0 "TN" 1 92 1 "NO"
}

DATA (LOAD, [BusNum, LoadID, Status, LoadSMW,LoadSMVR])
{
    2 "1 " "CLOSED" 184.31 52.52835
    3 "1 " "CLOSED" 165.516 47.17206
    4 "1 " "CLOSED" 156.812 44.69142
    5 "1 " "CLOSED" 168.446 48.00711
    6 "1 " "CLOSED" 156.888 44.71308
    7 "1 " "CLOSED" 134.58 38.3553
    8 "1 " "CLOSED" 195.4 55.689
    9 "1 " "CLOSED" 176.314 50.24949
    10 "1 " "CLOSED" 72.722 20.72577
    11 "1 " "CLOSED" 189.926 54.12891
    12 "1 " "CLOSED" 125.302 35.71107
    13 "1 " "CLOSED" 177.272 50.52252
    14 "1 " "CLOSED" 199.17 56.76345
    15 "1 " "CLOSED" 178.438 50.85483
    16 "1 " "CLOSED" 119.77 34.13445
    17 "1 " "CLOSED" 162.894 46.42479
    18 "1 " "CLOSED" 129.658 36.95253
    19 "1 " "CLOSED" 161.67 46.07595
    20 "1 " "CLOSED" 99.26 28.2891
    21 "1 " "CLOSED" 180.088 51.32508
    22 "1 " "CLOSED" 194.992 55.57272
    23 "1 " "CLOSED" 187.178 53.34573
    24 "1 " "CLOSED" 60.742 17.31147
    25 "1 " "CLOSED" 39.542 11.26947
    26 "1 " "CLOSED" 161.774 46.10559
    27 "1 " "CLOSED" 199.086 56.73951
    28 "1 " "CLOSED" 131.124 37.37034
    29 "1 " "CLOSED" 141.478 40.32123
    30 "1 " "CLOSED" 149.51 42.61035
    31 "1 " "CLOSED" 153.822 43.83927
    32 "1 " "CLOSED" 167.516 47.74206
    33 "1 " "CLOSED" 199.092 56.74122
    34 "1 " "CLOSED" 158.008 45.03228
    35 "1 " "CLOSED" 166.046 47.32311
    36 "1 " "CLOSED" 10.004 2.85114
    37 "1 " "CLOSED" 87.526 24.94491
    38 "1 " "CLOSED" 42.842 12.20997
    39 "1 " "CLOSED" 68.288 19.46208
    40 "1 " "CLOSED" 186.836 53.24826
    41 "1 " "CLOSED" 161.228 45.94998
    42 "1 " "CLOSED" 155.942 44.44347
    43 "1 " "CLOSED" 188.776 53.80116
    44 "1 " "CLOSED" 114.86 32.7351
    45 "1 " "CLOSED" 197.41 56.26185
    46 "1 " "CLOSED" 93.462 26.63667
    47 "1 " "CLOSED" 181.602 51.75657
    48 "1 " "CLOSED" 31.398 8.94843
    49 "1 " "CLOSED" 199.462 56.84667
    50 "1 " "CLOSED" 154.506 44.03421
    51 "1 " "CLOSED" 179.204 51.07314
    52 "1 " "CLOSED" 126.818 36.14313
    53 "1 " "CLOSED" 184.312 52.52892
    54 "1 " "CLOSED" 185.602 52.89657
    55 "1 " "CLOSED" 112.628 32.09898
    56 "1 " "CLOSED" 176.998 50.44443
    57 "1 " "CLOSED" 129.658 36.95253
    58 "1 " "CLOSED" 66.006 18.81171
    59 "1 " "CLOSED" 121.514 34.63149
    60 "1 " "CLOSED" 124.074 35.36109
    61 "1 " "CLOSED" 131.734 37.54419
    62 "1 " "CLOSED" 166.176 47.36016
    63 "1 " "CLOSED" 185.436 52.84926
    64 "1 " "CLOSED" 193.856 55.24896
    65 "1 " "CLOSED" 118.736 33.83976
    66 "1 " "CLOSED" 88.778 25.30173
    67 "1 " "CLOSED" 154.146 43.93161
    68 "1 " "CLOSED" 66.688 19.00608
    69 "1 " "CLOSED" 64.746 18.45261
    70 "1 " "CLOSED" 33.902 9.66207
    71 "1 " "CLOSED" 197.85 56.38725
    72 "1 " "CLOSED" 166.176 47.36016
    73 "1 " "CLOSED" 87.926 25.05891
    74 "1 " "CLOSED" 173.844 49.54554
    75 "1 " "CLOSED" 146.928 41.87448
    76 "1 " "CLOSED" 168.554 48.03789
    77 "1 " "CLOSED" 147.632 42.07512
    78 "1 " "CLOSED" 177.724 50.65134
    79 "1 " "CLOSED" 191.228 54.49998
    80 "1 " "CLOSED" 167.842 47.83497
    81 "1 " "CLOSED" 163.738 46.66533
    82 "1 " "CLOSED" 152.562 43.48017
    83 "1 " "CLOSED" 83.508 23.79978
    84 "1 " "CLOSED" 67.184 19.14744
    85 "1 " "CLOSED" 64.874 18.48909
    86 "1 " "CLOSED" 186.896 53.26536
    87 "1 " "CLOSED" 96.146 27.40161
    88 "1 " "CLOSED" 65.71 18.72735
    89 "1 " "CLOSED" 179.488 51.15408
    90 "1 " "CLOSED" 198.932 56.69562
    91 "1 " "CLOSED" 65.648 18.70968
}

DATA (GEN, [BusNum, GenID, GenStatus, GenMW,GenMVR, GenAGCAble, GenEnforceMWLimits, GenMWMin,GenMWMax,GenAVRAble,GenVoltSet,GenMVRMin,GenMVRMax,GenParFac,GICIncludeImplicitGSU,StepX,StepR,GenMVABase])
{
    110 "1 " "Closed" 368.701478269 382.297 "YES " "YES" 204.93 683.1 "YES" 1.04 -43.964 382.297 6.831 "No" 0.0 0.000 751.41
    111 "1 " "Closed" 245.153288581 174.635 "YES " "YES" 136.26 454.2 "YES" 1.04 -22.215 174.635 4.542 "No" 0.0 0.000 499.62
    112 "1 " "Closed" 695.842403432 601.347 "YES " "YES" 386.76 1289.2 "YES" 1.04 -117.537 601.347 12.892 "No" 0.0 0.000 1418.12
    113 "1 " "Closed" 341.876030355 354.4825 "YES " "YES" 190.02 633.4 "YES" 1.04 -40.7655 354.4825 6.334 "No" 0.0 0.000 696.74
    114 "1 " "Closed" 341.876030355 354.4825 "YES " "YES" 190.02 633.4 "YES" 1.04 -40.7655 354.4825 6.334 "No" 0.0 0.000 696.74
    115 "1 " "Closed" 148.538496296 105.812 "YES " "YES" 82.56 275.2 "YES" 1.04 -13.46 105.812 2.752 "No" 0.0 0.000 302.72
    116 "1 " "Closed" 366.596463242 380.113333333 "YES " "YES" 203.76 679.2 "YES" 1.04 -43.7133333333 380.113333333 6.792 "No" 0.0 0.000 747.12
    117 "1 " "Closed" 366.596463242 380.113333333 "YES " "YES" 203.76 679.2 "YES" 1.04 -43.7133333333 380.113333333 6.792 "No" 0.0 0.000 747.12
    118 "1 " "Closed" 366.596463242 380.113333333 "YES " "YES" 203.76 679.2 "YES" 1.04 -43.7133333333 380.113333333 6.792 "No" 0.0 0.000 747.12
    1 "1 " "Closed" 1102.48812694 952.77 "YES " "YES" 612.78 2042.6 "YES" 1.04 -186.225 952.77 20.426 "No" 0.0 0.000 2246.86
    119 "1 " "Closed" 1102.48812694 952.77 "YES " "YES" 612.78 2042.6 "YES" 1.04 -186.225 952.77 20.426 "No" 0.0 0.000 2246.86
    120 "1 " "Closed" 239.512927802 170.6175 "YES " "YES" 133.125 443.75 "YES" 1.04 -21.7035 170.6175 4.4375 "No" 0.0 0.000 488.125
    121 "1 " "Closed" 239.512927802 170.6175 "YES " "YES" 133.125 443.75 "YES" 1.04 -21.7035 170.6175 4.4375 "No" 0.0 0.000 488.125
    122 "1 " "Closed" 715.165361889 618.045 "YES " "YES" 397.5 1325.0 "YES" 1.04 -120.8 618.045 13.25 "No" 0.0 0.000 1457.5
    123 "1 " "Closed" 715.165361889 618.045 "YES " "YES" 397.5 1325.0 "YES" 1.04 -120.8 618.045 13.25 "No" 0.0 0.000 1457.5
    124 "1 " "Closed" 365.705879961 379.19 "YES " "YES" 203.265 677.55 "YES" 1.04 -43.6075 379.19 6.7755 "No" 0.0 0.000 745.305
    125 "1 " "Closed" 365.705879961 379.19 "YES " "YES" 203.265 677.55 "YES" 1.04 -43.6075 379.19 6.7755 "No" 0.0 0.000 745.305
    126 "1 " "Closed" 365.705879961 379.19 "YES " "YES" 203.265 677.55 "YES" 1.04 -43.6075 379.19 6.7755 "No" 0.0 0.000 745.305
    127 "1 " "Closed" 365.705879961 379.19 "YES " "YES" 203.265 677.55 "YES" 1.04 -43.6075 379.19 6.7755 "No" 0.0 0.000 745.305
    128 "1 " "Closed" 547.843654579 473.447 "YES " "YES" 304.5 1015.0 "YES" 1.04 -92.537 473.447 10.15 "No" 0.0 0.000 1116.5
    129 "1 " "Closed" 185.727095114 132.303 "YES " "YES" 103.23 344.1 "YES" 1.04 -16.83 132.303 3.441 "No" 0.0 0.000 378.51
    130 "1 " "Closed" 430.178712019 306.438666667 "YES " "YES" 239.1 797.0 "YES" 1.04 -38.9813333333 306.438666667 7.97 "No" 0.0 0.000 876.7
    131 "1 " "Closed" 430.178712019 306.438666667 "YES " "YES" 239.1 797.0 "YES" 1.04 -38.9813333333 306.438666667 7.97 "No" 0.0 0.000 876.7
    132 "1 " "Closed" 430.178712019 306.438666667 "YES " "YES" 239.1 797.0 "YES" 1.04 -38.9813333333 306.438666667 7.97 "No" 0.0 0.000 876.7
    133 "1 " "Closed" 1001.47439299 683.435 "YES " "YES" 556.635 1855.45 "YES" 1.04 -150.885 683.435 18.5545 "No" 0.0 0.000 2040.995
    134 "1 " "Closed" 1001.47439299 683.435 "YES " "YES" 556.635 1855.45 "YES" 1.04 -150.885 683.435 18.5545 "No" 0.0 0.000 2040.995
    135 "1 " "Closed" 24.6664581421 17.5712 "YES " "YES" 13.71 45.7 "YES" 1.04 -2.2352 17.5712 0.457 "No" 0.0 0.000 50.27
}

DATA (BRANCH, [BusNumFrom,BusNumTo,LineCircuit,BranchDeviceType,LineR,LineX,LineC,LineAMVA,LineAMVA:1,LineAMVA:2])
{
    63 92 "1 " Transformer 0.0002 0.016 0.0 1000.0 9999.0 9999.0
    54 93 "1 " Transformer 0.0002 0.016 0.0 1000.0 9999.0 9999.0
    40 94 "1 " Transformer 0.0002 0.016 0.0 1000.0 9999.0 9999.0
    86 95 "1 " Transformer 0.0002 0.016 0.0 1000.0 9999.0 9999.0
    23 96 "1 " Transformer 0.0002 0.016 0.0 1000.0 9999.0 9999.0
    43 97 "1 " Transformer 0.0002 0.016 0.0 1000.0 9999.0 9999.0
    11 98 "1 " Transformer 0.0002 0.016 0.0 1000.0 9999.0 9999.0
    79 99 "1 " Transformer 0.0002 0.016 0.0 1000.0 9999.0 9999.0
    64 100 "1 " Transformer 0.0002 0.016 0.0 1000.0 9999.0 9999.0
    22 101 "1 " Transformer 0.0002 0.016 0.0 1000.0 9999.0 9999.0
    8 102 "1 " Transformer 0.0002 0.016 0.0 1000.0 9999.0 9999.0
    45 103 "1 " Transformer 0.0002 0.016 0.0 1000.0 9999.0 9999.0
    71 104 "1 " Transformer 0.0002 0.016 0.0 1000.0 9999.0 9999.0
    90 105 "1 " Transformer 0.0002 0.016 0.0 1000.0 9999.0 9999.0
    27 106 "1 " Transformer 0.0002 0.016 0.0 1000.0 9999.0 9999.0
    33 107 "1 " Transformer 0.0002 0.016 0.0 1000.0 9999.0 9999.0
    14 108 "1 " Transformer 0.0002 0.016 0.0 1000.0 9999.0 9999.0
    49 109 "1 " Transformer 0.0002 0.016 0.0 1000.0 9999.0 9999.0
    136 137 "1 " Transformer 0.0002 0.016 0.0 1000.0 9999.0 9999.0
    136 137 "2 " Transformer 0.0002 0.016 0.0 1000.0 9999.0 9999.0
    137 124 "1 " Transformer 0.000368976459302 0.0147590583721 0.0 677.55 9999.0 9999.0
    137 125 "1 " Transformer 0.000368976459302 0.0147590583721 0.0 677.55 9999.0 9999.0
    137 126 "1 " Transformer 0.000368976459302 0.0147590583721 0.0 677.55 9999.0 9999.0
    137 127 "1 " Transformer 0.000368976459302 0.0147590583721 0.0 677.55 9999.0 9999.0
    137 128 "1 " Transformer 0.000246305418719 0.00985221674877 0.0 1015.0 9999.0 9999.0
    138 139 "1 " Transformer 0.0002 0.016 0.0 1000.0 9999.0 9999.0
    138 139 "2 " Transformer 0.0002 0.016 0.0 1000.0 9999.0 9999.0
    139 120 "1 " Transformer 0.00056338028169 0.0225352112676 0.0 443.75 9999.0 9999.0
    139 121 "1 " Transformer 0.00056338028169 0.0225352112676 0.0 443.75 9999.0 9999.0
    139 122 "1 " Transformer 0.000188679245283 0.00754716981132 0.0 1325.0 9999.0 9999.0
    139 123 "1 " Transformer 0.000188679245283 0.00754716981132 0.0 1325.0 9999.0 9999.0
    140 135 "1 " Transformer 0.0054704595186 0.218818380744 0.0 45.7 9999.0 9999.0
    141 142 "1 " Transformer 0.0002 0.016 0.0 1000.0 9999.0 9999.0
    141 142 "2 " Transformer 0.0002 0.016 0.0 1000.0 9999.0 9999.0
    142 110 "1 " Transformer 0.000365978626848 0.0146391450739 0.0 683.1 9999.0 9999.0
    142 111 "1 " Transformer 0.000550418317922 0.0220167327169 0.0 454.2 9999.0 9999.0
    142 112 "1 " Transformer 0.000193918709277 0.00775674837108 0.0 1289.2 9999.0 9999.0
    143 144 "1 " Transformer 0.0002 0.016 0.0 1000.0 9999.0 9999.0
    143 144 "2 " Transformer 0.0002 0.016 0.0 1000.0 9999.0 9999.0
    144 116 "1 " Transformer 0.000368080094229 0.0147232037691 0.0 679.2 9999.0 9999.0
    144 117 "1 " Transformer 0.000368080094229 0.0147232037691 0.0 679.2 9999.0 9999.0
    144 118 "1 " Transformer 0.000368080094229 0.0147232037691 0.0 679.2 9999.0 9999.0
    144 1 "1 " Transformer 0.000122393028493 0.00489572113972 0.0 2042.6 9999.0 9999.0
    144 119 "1 " Transformer 0.000122393028493 0.00489572113972 0.0 2042.6 9999.0 9999.0
    145 146 "1 " Transformer 0.0002 0.016 0.0 1000.0 9999.0 9999.0
    145 146 "2 " Transformer 0.0002 0.016 0.0 1000.0 9999.0 9999.0
    146 130 "1 " Transformer 0.000313676286073 0.0125470514429 0.0 797.0 9999.0 9999.0
    146 131 "1 " Transformer 0.000313676286073 0.0125470514429 0.0 797.0 9999.0 9999.0
    146 132 "1 " Transformer 0.000313676286073 0.0125470514429 0.0 797.0 9999.0 9999.0
    146 133 "1 " Transformer 0.00013473820367 0.00538952814681 0.0 1855.45 9999.0 9999.0
    146 134 "1 " Transformer 0.00013473820367 0.00538952814681 0.0 1855.45 9999.0 9999.0
    147 148 "1 " Transformer 0.0002 0.016 0.0 1000.0 9999.0 9999.0
    148 129 "1 " Transformer 0.000726532984598 0.0290613193839 0.0 344.1 9999.0 9999.0
    149 150 "1 " Transformer 0.0002 0.016 0.0 1000.0 9999.0 9999.0
    149 150 "2 " Transformer 0.0002 0.016 0.0 1000.0 9999.0 9999.0
    150 113 "1 " Transformer 0.000394695295232 0.0157878118093 0.0 633.4 9999.0 9999.0
    150 114 "1 " Transformer 0.000394695295232 0.0157878118093 0.0 633.4 9999.0 9999.0
    150 115 "1 " Transformer 0.000908430232558 0.0363372093023 0.0 275.2 9999.0 9999.0
    86 65 "1 " Line 0.00471285456989 0.033564424014 0.0615802593208 402.355402598 9999.0 9999.0
    87 69 "1 " Line 0.00541355060604 0.0385547029445 0.0707358661769 402.355402598 9999.0 9999.0
    87 147 "1 " Line 0.00464773494761 0.0331006493354 0.0607293772987 402.355402598 9999.0 9999.0
    4 30 "1 " Line 0.00110861326872 0.00789541991314 0.0144856353112 402.355402598 9999.0 9999.0
    4 19 "1 " Line 0.00147107111831 0.0104768042462 0.0192216711977 402.355402598 9999.0 9999.0
    4 18 "1 " Line 0.00117709307335 0.00838312543531 0.0153804229743 402.355402598 9999.0 9999.0
    2 21 "1 " Line 0.00317919883588 0.0226418991229 0.0415408296273 402.355402598 9999.0 9999.0
    88 147 "1 " Line 0.00382026312508 0.02720748741 0.0499172614872 402.355402598 9999.0 9999.0
    5 16 "1 " Line 0.00254463242309 0.018122587986 0.033249301918 402.355402598 9999.0 9999.0
    5 30 "1 " Line 0.00163041150916 0.0116116087181 0.021303683796 402.355402598 9999.0 9999.0
    89 26 "1 " Line 0.00660641819999 0.0470501727541 0.0863224060714 402.355402598 9999.0 9999.0
    6 28 "1 " Line 0.00255189293451 0.0181742965377 0.0333441709978 402.355402598 9999.0 9999.0
    6 14 "1 " Line 0.00520801959837 0.0370909340572 0.0680503063822 402.355402598 9999.0 9999.0
    7 38 "1 " Line 0.00588921787716 0.0419423521368 0.0769511468463 402.355402598 9999.0 9999.0
    91 25 "1 " Line 0.00610975430522 0.0435129879526 0.0798327741547 402.355402598 9999.0 9999.0
    8 23 "1 " Line 0.00224171977791 0.0159652779501 0.0292913102243 402.355402598 9999.0 9999.0
    9 26 "1 " Line 0.00468228822612 0.0333467339267 0.0611808658433 402.355402598 9999.0 9999.0
    9 39 "1 " Line 0.00548738504557 0.0390805435785 0.0717006198873 402.355402598 9999.0 9999.0
    10 25 "1 " Line 0.00591281141747 0.0421103826965 0.0772594305645 402.355402598 9999.0 9999.0
    10 141 "1 " Line 0.00437448217261 0.0311545735829 0.0571589346942 402.355402598 9999.0 9999.0
    11 14 "1 " Line 0.002524800942 0.0179813503921 0.0329901749431 402.355402598 9999.0 9999.0
    12 13 "1 " Line 0.00515871985742 0.0367398268069 0.0674061339837 402.355402598 9999.0 9999.0
    12 143 "1 " Line 0.00650675946256 0.046340414354 0.0850202205693 402.355402598 9999.0 9999.0
    13 16 "1 " Line 0.00270322892361 0.019252094554 0.0353215945137 402.355402598 9999.0 9999.0
    15 17 "1 " Line 0.0025002937458 0.0178068128772 0.0326699529894 402.355402598 9999.0 9999.0
    16 26 "1 " Line 0.00314331934086 0.0223863693656 0.0410720121463 402.355402598 9999.0 9999.0
    17 21 "1 " Line 0.0018480161393 0.0131613645964 0.0241470029256 402.355402598 9999.0 9999.0
    17 141 "1 " Line 0.00246897883208 0.0175837915583 0.0322607783632 402.355402598 9999.0 9999.0
    18 22 "1 " Line 0.000710538216106 0.0050603738371 0.00928420916799 402.355402598 9999.0 9999.0
    19 23 "1 " Line 0.00201676529244 0.0143631772227 0.0263519546075 402.355402598 9999.0 9999.0
    20 83 "1 " Line 0.00642011924719 0.0457233724142 0.0838881408815 402.355402598 9999.0 9999.0
    21 29 "1 " Line 0.0011222274508 0.00799237859779 0.014663524285 402.355402598 9999.0 9999.0
    22 29 "1 " Line 0.00058872401192 0.00419282667654 0.00769253045788 402.355402598 9999.0 9999.0
    24 143 "1 " Line 0.000676747639051 0.00481972112034 0.00884268642063 402.355402598 9999.0 9999.0
    24 84 "1 " Line 0.00501421960673 0.0357107121563 0.065518029274 402.355402598 9999.0 9999.0
    25 90 "1 " Line 0.00514376648309 0.0366333305446 0.0672107465268 402.355402598 9999.0 9999.0
    149 46 "1 " Line 0.00220956774292 0.0157362947469 0.0288711973981 402.355402598 9999.0 9999.0
    149 44 "1 " Line 0.00358550903206 0.0255355949719 0.0468498598285 402.355402598 9999.0 9999.0
    149 51 "1 " Line 0.00381388803045 0.0271620846979 0.0498339616581 402.355402598 9999.0 9999.0
    27 140 "1 " Line 0.00262522321287 0.0186965465922 0.0343023371136 402.355402598 9999.0 9999.0
    28 29 "1 " Line 0.00108838517445 0.00775135768441 0.0142213260116 402.355402598 9999.0 9999.0
    31 40 "1 " Line 0.00358126126074 0.0255053428189 0.0467943565543 402.355402598 9999.0 9999.0
    32 40 "1 " Line 0.00177579642043 0.0126470238226 0.0232033478754 402.355402598 9999.0 9999.0
    33 37 "1 " Line 0.00539231018107 0.0384034310095 0.0704583293128 402.355402598 9999.0 9999.0
    33 61 "1 " Line 0.00606923564574 0.0432244185841 0.0793033392823 402.355402598 9999.0 9999.0
    34 36 "1 " Line 0.00527071310285 0.0375374301958 0.0688694876674 402.355402598 9999.0 9999.0
    34 35 "1 " Line 0.00334193368609 0.0238008785553 0.0436671957452 402.355402598 9999.0 9999.0
    90 57 "1 " Line 0.00591954034775 0.0421583053866 0.0773473537681 402.355402598 9999.0 9999.0
    35 37 "1 " Line 0.00459948838559 0.0327570427078 0.0600989662057 402.355402598 9999.0 9999.0
    35 145 "1 " Line 0.000990708291853 0.00705571383306 0.0129450363084 402.355402598 9999.0 9999.0
    138 53 "1 " Line 0.00193272332659 0.0137646397259 0.0252538248065 402.355402598 9999.0 9999.0
    138 59 "1 " Line 0.00150381997001 0.0107100379114 0.0196495822971 402.355402598 9999.0 9999.0
    37 38 "1 " Line 0.00504302682731 0.0359158739646 0.0658944372635 402.355402598 9999.0 9999.0
    136 70 "1 " Line 0.00168325964998 0.011987987276 0.0219942211696 402.355402598 9999.0 9999.0
    136 73 "1 " Line 0.00550059082039 0.0391745936322 0.0718731724296 402.355402598 9999.0 9999.0
    136 67 "1 " Line 0.00406586688781 0.0289566499843 0.0531264297683 402.355402598 9999.0 9999.0
    39 140 "1 " Line 0.0037849537246 0.0269560178024 0.0494558931157 402.355402598 9999.0 9999.0
    40 41 "1 " Line 0.00172589091972 0.012291602419 0.0225512603498 402.355402598 9999.0 9999.0
    40 145 "1 " Line 0.0021829116002 0.0155464526748 0.0285228963511 402.355402598 9999.0 9999.0
    3 141 "1 " Line 0.00280833261667 0.0200006313203 0.0366949262341 402.355402598 9999.0 9999.0
    42 45 "1 " Line 0.00331197031281 0.0235874827564 0.043275680949 402.355402598 9999.0 9999.0
    42 43 "1 " Line 0.00133366591103 0.00949821970254 0.017426273489 402.355402598 9999.0 9999.0
    43 47 "1 " Line 0.00291046153141 0.0207279820474 0.0380293881743 402.355402598 9999.0 9999.0
    45 48 "1 " Line 0.00360141281206 0.0256488599173 0.0470576657097 402.355402598 9999.0 9999.0
    46 47 "1 " Line 0.0035360623093 0.0251834409336 0.0462037669001 402.355402598 9999.0 9999.0
    49 63 "1 " Line 0.00237985884279 0.0169490889457 0.0310962968436 402.355402598 9999.0 9999.0
    50 56 "1 " Line 0.00261337449042 0.0186121613139 0.0341475164225 402.355402598 9999.0 9999.0
    50 55 "1 " Line 0.00490596947296 0.0349397667907 0.0641035847564 402.355402598 9999.0 9999.0
    51 58 "1 " Line 0.00552902657881 0.0393771099286 0.072244726729 402.355402598 9999.0 9999.0
    51 54 "1 " Line 0.00322260860317 0.0229510586384 0.0421080410035 402.355402598 9999.0 9999.0
    52 56 "1 " Line 0.00240656638426 0.0171392970738 0.0314452694896 402.355402598 9999.0 9999.0
    52 60 "1 " Line 0.00385544663265 0.0274580604224 0.0503769848859 402.355402598 9999.0 9999.0
    53 62 "1 " Line 0.00204791272739 0.0145850057765 0.0267589408815 402.355402598 9999.0 9999.0
    54 60 "1 " Line 0.00425085859689 0.0302741402803 0.0555436139288 402.355402598 9999.0 9999.0
    56 63 "1 " Line 0.00205802982863 0.0146570586419 0.0268911354377 402.355402598 9999.0 9999.0
    57 59 "1 " Line 0.00548952175982 0.0390957610188 0.0717285391484 402.355402598 9999.0 9999.0
    61 62 "1 " Line 0.0032335540381 0.0230290108038 0.042251058937 402.355402598 9999.0 9999.0
    62 64 "1 " Line 0.00141302600954 0.0100634134628 0.0184632279236 402.355402598 9999.0 9999.0
    63 64 "1 " Line 0.00139272082783 0.00991880222594 0.018197911365 402.355402598 9999.0 9999.0
    65 73 "1 " Line 0.00465848917046 0.0331772397096 0.0608698967697 402.355402598 9999.0 9999.0
    65 83 "1 " Line 0.00502421563599 0.0357819027605 0.0656486418497 402.355402598 9999.0 9999.0
    66 71 "1 " Line 0.00211937564978 0.0150939567303 0.0276927072916 402.355402598 9999.0 9999.0
    66 67 "1 " Line 0.00389967034427 0.0277730167585 0.0509548316216 402.355402598 9999.0 9999.0
    68 73 "1 " Line 0.00553204768523 0.0393986259112 0.0722842018526 402.355402598 9999.0 9999.0
    68 85 "1 " Line 0.00559172692678 0.0398236548058 0.0730639974343 402.355402598 9999.0 9999.0
    69 70 "1 " Line 0.00581190796799 0.0413917595961 0.0759409810997 402.355402598 9999.0 9999.0
    71 72 "1 " Line 0.00248197370634 0.0176763396018 0.0324305751849 402.355402598 9999.0 9999.0
    71 74 "1 " Line 0.00107996409839 0.00769138372098 0.0141112924767 402.355402598 9999.0 9999.0
    74 78 "1 " Line 0.000958115094222 0.00682358871885 0.0125191590545 402.355402598 9999.0 9999.0
    75 78 "1 " Line 0.00142789680369 0.0101693215983 0.018657536351 402.355402598 9999.0 9999.0
    76 78 "1 " Line 0.00121344533562 0.00864202218817 0.0158554178431 402.355402598 9999.0 9999.0
    76 77 "1 " Line 0.00191092260719 0.0136093774367 0.0249689668857 402.355402598 9999.0 9999.0
    76 79 "1 " Line 0.00102936607099 0.00733103021955 0.0134501560885 402.355402598 9999.0 9999.0
    79 81 "1 " Line 0.00115126207943 0.00819915998092 0.0150429036896 402.355402598 9999.0 9999.0
    79 80 "1 " Line 0.00135587927043 0.00965642076783 0.017716523148 402.355402598 9999.0 9999.0
    80 82 "1 " Line 0.000873333729926 0.00621978530894 0.0114113679438 402.355402598 9999.0 9999.0
    85 84 "1 " Line 0.00590557563873 0.0420588502882 0.077164884653 402.355402598 9999.0 9999.0
    95 144 "1 " Line 0.000476338428393 0.0100611324113 1.11045746575 3585.34517167 9999.0 9999.0
    95 137 "1 " Line 0.000306633529483 0.00647665684304 0.714835234292 3585.34517167 9999.0 9999.0
    95 148 "1 " Line 0.000470036674501 0.00992802792807 1.09576658792 3585.34517167 9999.0 9999.0
    96 102 "1 " Line 9.5878831863e-05 0.00202513499921 0.223516219358 3585.34517167 9999.0 9999.0
    96 101 "1 " Line 0.000202574152627 0.0042787338816 0.47224823097 3585.34517167 9999.0 9999.0
    103 97 "1 " Line 0.000184725989751 0.00390174827792 0.430639944648 3585.34517167 9999.0 9999.0
    142 101 "1 " Line 0.000178330132747 0.00376665616616 0.415729690222 3585.34517167 9999.0 9999.0
    146 94 "1 " Line 9.33635935898e-05 0.00197200860041 0.217652604432 3585.34517167 9999.0 9999.0
    146 107 "1 " Line 0.00034822145773 0.00735506939148 0.811786524917 3585.34517167 9999.0 9999.0
    150 93 "1 " Line 0.000278627229123 0.00588511293335 0.649545928478 3585.34517167 9999.0 9999.0
    150 97 "1 " Line 0.000259282964884 0.00547652695266 0.604449876253 3585.34517167 9999.0 9999.0
    105 102 "1 " Line 0.000440627474453 0.00930685222995 1.02720679134 3585.34517167 9999.0 9999.0
    109 93 "1 " Line 0.000296110160911 0.00625438419339 0.690302774808 3585.34517167 9999.0 9999.0
    109 92 "1 " Line 0.000101787069059 0.00214992769534 0.237289716756 3585.34517167 9999.0 9999.0
    104 137 "1 " Line 0.000355700642758 0.00751304335791 0.829222273026 3585.34517167 9999.0 9999.0
    104 99 "1 " Line 0.00010027238231 0.00211793476125 0.233758623926 3585.34517167 9999.0 9999.0
    144 98 "1 " Line 0.00039758620459 0.00839774246801 0.926867417886 3585.34517167 9999.0 9999.0
    102 106 "1 " Line 0.000330539437815 0.00698159302875 0.770565557105 3585.34517167 9999.0 9999.0
    106 94 "1 " Line 0.000482113735682 0.0101831173864 1.12392107211 3585.34517167 9999.0 9999.0
    98 108 "1 " Line 0.000107986273481 0.00228086614753 0.251741527531 3585.34517167 9999.0 9999.0
    107 139 "1 " Line 0.000278374528011 0.00587977542708 0.648956822456 3585.34517167 9999.0 9999.0
    139 100 "1 " Line 0.000206130553805 0.00435385153122 0.480539042722 3585.34517167 9999.0 9999.0
    108 101 "1 " Line 0.000383078805821 0.00809131986751 0.893047242334 3585.34517167 9999.0 9999.0
    92 100 "1 " Line 5.95669661298e-05 0.00125816246989 0.138864677523 3585.34517167 9999.0 9999.0
    88 89 "1 " Line 0.00843050364451 0.0600411056144 0.110156719868 402.355402598 9999.0 9999.0
    71 82 "1 " Line 0.00173772556695 0.0123758874551 0.0227058971277 402.355402598 9999.0 9999.0
    15 141 "1 " Line 0.0026641570668 0.0189738291526 0.03481106421 402.355402598 9999.0 9999.0
    144 108 "1 " Line 0.000448424494433 0.00947153944761 1.04538348784 3585.34517167 9999.0 9999.0
    20 143 "1 " Line 0.00686187130284 0.048869481229 0.0896602702224 402.355402598 9999.0 9999.0
    2 14 "1 " Line 0.00546194026914 0.0388993287219 0.0713681470924 402.355402598 9999.0 9999.0
    138 55 "1 " Line 0.00777801630684 0.0553941636516 0.101631029363 402.355402598 9999.0 9999.0
    109 107 "1 " Line 0.000401857889123 0.0084879682007 0.936825724205 3585.34517167 9999.0 9999.0
    67 75 "1 " Line 0.00527519384187 0.0375693415188 0.0689280350014 402.355402598 9999.0 9999.0
    70 72 "1 " Line 0.00780296519422 0.0555718468417 0.101957022651 402.355402598 9999.0 9999.0
    32 145 "1 " Line 0.002415878494 0.0172056168796 0.0315669456679 402.355402598 9999.0 9999.0
    99 137 "1 " Line 0.000442286598936 0.00934189595122 1.03107460266 3585.34517167 9999.0 9999.0
    31 38 "1 " Line 0.00561068479186 0.039958670604 0.0733117093529 402.355402598 9999.0 9999.0
    77 81 "1 " Line 0.00204028274127 0.0145306658673 0.0266592440806 402.355402598 9999.0 9999.0
    19 3 "1 " Line 0.00544848922198 0.0388035318659 0.0711923897121 402.355402598 9999.0 9999.0
    146 105 "1 " Line 0.000611609520104 0.012918303456 1.42580635371 3585.34517167 9999.0 9999.0
    7 8 "1 " Line 0.00659927337596 0.0469992881152 0.0862290486147 402.355402598 9999.0 9999.0
    31 41 "1 " Line 0.00388157584203 0.027644149734 0.0507184007869 402.355402598 9999.0 9999.0
    91 90 "1 " Line 0.00611021925713 0.0435162992882 0.0798388494238 402.355402598 9999.0 9999.0
    144 101 "1 " Line 0.000672425093982 0.0142028387884 1.56758183103 3585.34517167 9999.0 9999.0
    22 30 "1 " Line 0.00119378357368 0.00850199331503 0.0155985084941 402.355402598 9999.0 9999.0
    56 58 "1 " Line 0.00623503989151 0.0444052579089 0.0814698114913 402.355402598 9999.0 9999.0
    42 44 "1 " Line 0.00584524550611 0.0416291858201 0.0763765842383 402.355402598 9999.0 9999.0
    93 97 "1 " Line 0.00047635603588 0.0100615043133 1.11049851296 3585.34517167 9999.0 9999.0
    6 13 "1 " Line 0.0028179219296 0.0200689253362 0.0368202244728 402.355402598 9999.0 9999.0
    32 36 "1 " Line 0.00856475474726 0.0609972269778 0.111910904641 402.355402598 9999.0 9999.0
    47 48 "1 " Line 0.00857948830018 0.0611021576966 0.112103419813 402.355402598 9999.0 9999.0
    49 52 "1 " Line 0.00307497011121 0.0218995937839 0.0401789306341 402.355402598 9999.0 9999.0
    50 64 "1 " Line 0.00284170427696 0.0202383005586 0.0371309752281 402.355402598 9999.0 9999.0
    9 23 "1 " Line 0.00567920604249 0.0404466713 0.074207038568 402.355402598 9999.0 9999.0
    79 99 "2 " Transformer 0.0002 0.016 0.0 1000.0 9999.0 9999.0
    22 101 "2 " Transformer 0.0002 0.016 0.0 1000.0 9999.0 9999.0
    17 141 "2 " Line 0.00246897883208 0.0175837915583 0.0322607783632 402.355402598 9999.0 9999.0
    35 145 "2 " Line 0.000990708291853 0.00705571383306 0.0129450363084 402.355402598 9999.0 9999.0
    138 53 "2 " Line 0.00193272332659 0.0137646397259 0.0252538248065 402.355402598 9999.0 9999.0
    136 67 "2 " Line 0.00406586688781 0.0289566499843 0.0531264297683 402.355402598 9999.0 9999.0
    71 74 "2 " Line 0.00107996409839 0.00769138372098 0.0141112924767 402.355402598 9999.0 9999.0
    22 30 "2 " Line 0.00119378357368 0.00850199331503 0.0155985084941 402.355402598 9999.0 9999.0
}

DATA (TRANSFORMER,[BusNum,BusNum:1,LineCircuit,LineXFType,XFAuto,XFNominalKV,XFNominalKV:1,XFMVABase,LineTap])
{
    63 92 "1 " "Fixed" "No" 230.0 500.0 100.0 1.00
    54 93 "1 " "Fixed" "No" 230.0 500.0 100.0 1.00
    40 94 "1 " "Fixed" "No" 230.0 500.0 100.0 1.00
    86 95 "1 " "Fixed" "No" 230.0 500.0 100.0 1.00
    23 96 "1 " "Fixed" "No" 230.0 500.0 100.0 1.00
    43 97 "1 " "Fixed" "No" 230.0 500.0 100.0 1.00
    11 98 "1 " "Fixed" "No" 230.0 500.0 100.0 1.00
    79 99 "1 " "Fixed" "No" 230.0 500.0 100.0 1.00
    64 100 "1 " "Fixed" "No" 230.0 500.0 100.0 1.00
    22 101 "1 " "Fixed" "No" 230.0 500.0 100.0 1.00
    8 102 "1 " "Fixed" "No" 230.0 500.0 100.0 1.00
    45 103 "1 " "Fixed" "No" 230.0 500.0 100.0 1.00
    71 104 "1 " "Fixed" "No" 230.0 500.0 100.0 1.00
    90 105 "1 " "Fixed" "No" 230.0 500.0 100.0 1.00
    27 106 "1 " "Fixed" "No" 230.0 500.0 100.0 1.00
    33 107 "1 " "Fixed" "No" 230.0 500.0 100.0 1.00
    14 108 "1 " "Fixed" "No" 230.0 500.0 100.0 1.00
    49 109 "1 " "Fixed" "No" 230.0 500.0 100.0 1.00
    136 137 "1 " "Fixed" "No" 230.0 500.0 100.0 1.00
    136 137 "2 " "Fixed" "No" 230.0 500.0 100.0 1.00
    137 124 "1 " "Fixed" "No" 500.0 13.8 100.0 1.02
    137 125 "1 " "Fixed" "No" 500.0 13.8 100.0 1.02
    137 126 "1 " "Fixed" "No" 500.0 13.8 100.0 1.02
    137 127 "1 " "Fixed" "No" 500.0 13.8 100.0 1.02
    137 128 "1 " "Fixed" "No" 500.0 13.8 100.0 1.02
    138 139 "1 " "Fixed" "No" 230.0 500.0 100.0 1.00
    138 139 "2 " "Fixed" "No" 230.0 500.0 100.0 1.00
    139 120 "1 " "Fixed" "No" 500.0 13.8 100.0 1.02
    139 121 "1 " "Fixed" "No" 500.0 13.8 100.0 1.02
    139 122 "1 " "Fixed" "No" 500.0 13.8 100.0 1.02
    139 123 "1 " "Fixed" "No" 500.0 13.8 100.0 1.02
    140 135 "1 " "Fixed" "No" 230.0 13.8 100.0 1.02
    141 142 "1 " "Fixed" "No" 230.0 500.0 100.0 1.00
    141 142 "2 " "Fixed" "No" 230.0 500.0 100.0 1.00
    142 110 "1 " "Fixed" "No" 500.0 13.8 100.0 1.02
    142 111 "1 " "Fixed" "No" 500.0 13.8 100.0 1.02
    142 112 "1 " "Fixed" "No" 500.0 13.8 100.0 1.02
    143 144 "1 " "Fixed" "No" 230.0 500.0 100.0 1.00
    143 144 "2 " "Fixed" "No" 230.0 500.0 100.0 1.00
    144 116 "1 " "Fixed" "No" 500.0 13.8 100.0 1.02
    144 117 "1 " "Fixed" "No" 500.0 13.8 100.0 1.02
    144 118 "1 " "Fixed" "No" 500.0 13.8 100.0 1.02
    144 1 "1 " "Fixed" "No" 500.0 13.8 100.0 1.02
    144 119 "1 " "Fixed" "No" 500.0 13.8 100.0 1.02
    145 146 "1 " "Fixed" "No" 230.0 500.0 100.0 1.00
    145 146 "2 " "Fixed" "No" 230.0 500.0 100.0 1.00
    146 130 "1 " "Fixed" "No" 500.0 13.8 100.0 1.02
    146 131 "1 " "Fixed" "No" 500.0 13.8 100.0 1.02
    146 132 "1 " "Fixed" "No" 500.0 13.8 100.0 1.02
    146 133 "1 " "Fixed" "No" 500.0 13.8 100.0 1.02
    146 134 "1 " "Fixed" "No" 500.0 13.8 100.0 1.02
    147 148 "1 " "Fixed" "No" 230.0 500.0 100.0 1.00
    148 129 "1 " "Fixed" "No" 500.0 13.8 100.0 1.02
    149 150 "1 " "Fixed" "No" 230.0 500.0 100.0 1.00
    149 150 "2 " "Fixed" "No" 230.0 500.0 100.0 1.00
    150 113 "1 " "Fixed" "No" 500.0 13.8 100.0 1.02
    150 114 "1 " "Fixed" "No" 500.0 13.8 100.0 1.02
    150 115 "1 " "Fixed" "No" 500.0 13.8 100.0 1.02
    79 99 "2 " "Fixed" "No" 230.0 500.0 100.0 1.00
    22 101 "2 " "Fixed" "No" 230.0 500.0 100.0 1.00
}

